.title test
Rs outp inp 1k
CL outp 0 1e-6
Vsrc inp 0 PULSE(0 1 0 1n 1n 1m 2m) AC 1 0
.tran 4ms
.backanno
.end